@<TRIPOS>MOLECULE
10gs_ligand.mol2.pdb
 59 60 0 0 0
SMALL
GASTEIGER

@<TRIPOS>ATOM
      1  N         15.0880   10.7980   23.5470 N.4     1  MOL1        0.2289
      2  CA        15.0100    9.9870   24.7920 C.3     1  MOL1        0.0790
      3  C         16.1150    8.9240   24.8300 C.2     1  MOL1        0.4026
      4  O         16.5200    8.5150   25.9400 O.co2   1  MOL1       -0.2400
      5  CB        13.6350    9.3270   24.9080 C.3     1  MOL1        0.0091
      6  CG        13.3940    8.7080   26.2710 C.3     1  MOL1        0.0296
      7  CD        12.0450    8.0460   26.4020 C.2     1  MOL1        0.2138
      8  OE1       11.2930    7.9360   25.4350 O.2     1  MOL1       -0.2758
      9  OXT       16.5780    8.5240   23.7440 O.co2   1  MOL1       -0.2400
     10  N         11.7260    7.6420   27.6280 N.am    1  MOL1       -0.3033
     11  CA        10.4720    6.9670   27.9340 C.3     1  MOL1        0.1083
     12  CB        10.7260    5.4840   28.2060 C.3     1  MOL1        0.0210
     13  SG        11.2910    4.5240   26.8100 S.3     1  MOL1       -0.1538
     14  CD         9.7290    3.8040   26.2620 C.3     1  MOL1        0.0189
     15  CE         8.9300    3.1710   27.3700 C.ar    1  MOL1       -0.0376
     16  CZ1        7.6400    3.6140   27.6500 C.ar    1  MOL1       -0.0578
     17  CZ2        9.4640    2.1350   28.1330 C.ar    1  MOL1       -0.0578
     18  CT1        6.8930    3.0370   28.6730 C.ar    1  MOL1       -0.0615
     19  CT2        8.7230    1.5500   29.1610 C.ar    1  MOL1       -0.0615
     20  CH         7.4370    2.0010   29.4300 C.ar    1  MOL1       -0.0617
     21  C          9.8340    7.5500   29.1800 C.2     1  MOL1        0.2350
     22  O         10.5220    8.0230   30.0840 O.2     1  MOL1       -0.2737
     23  N          8.5120    7.4680   29.2290 N.am    1  MOL1       -0.2971
     24  CA         7.7400    7.9330   30.3660 C.3     1  MOL1        0.1504
     25  CB         6.5550    7.0620   30.6330 C.ar    1  MOL1       -0.0164
     26  CG1        5.3300    7.3150   30.0270 C.ar    1  MOL1       -0.0563
     27  CG2        6.6830    5.9410   31.4410 C.ar    1  MOL1       -0.0563
     28  CD1        4.2500    6.4590   30.2200 C.ar    1  MOL1       -0.0614
     29  CD2        5.6110    5.0810   31.6400 C.ar    1  MOL1       -0.0614
     30  CE         4.3920    5.3390   31.0270 C.ar    1  MOL1       -0.0617
     31  C          7.4520    9.4330   30.3540 C.2     1  MOL1        0.3803
     32  O          7.1160    9.9570   31.4330 O.co2   1  MOL1       -0.2439
     33  OXT        7.5690   10.0680   29.2840 O.co2   1  MOL1       -0.2439
     34  H1        14.3520   11.4870   23.5480 H       1  MOL1        0.2002
     35  H2        14.9820   10.1950   22.7460 H       1  MOL1        0.2002
     36  H3        15.9820   11.2610   23.5030 H       1  MOL1        0.2002
     37  H4        15.1480   10.6590   25.6520 H       1  MOL1        0.0970
     38  H5        13.5580    8.5380   24.1450 H       1  MOL1        0.0330
     39  H6        12.8630   10.0890   24.7270 H       1  MOL1        0.0330
     40  H7        13.4680    9.5000   27.0310 H       1  MOL1        0.0360
     41  H8        14.1720    7.9520   26.4520 H       1  MOL1        0.0360
     42  H9        12.3740    7.8090   28.3710 H       1  MOL1        0.1495
     43  H10        9.7860    7.0780   27.0810 H       1  MOL1        0.0603
     44  H11        9.7850    5.0400   28.5620 H       1  MOL1        0.0399
     45  H12       11.4880    5.4110   28.9960 H       1  MOL1        0.0399
     46  H13        9.9480    3.0330   25.5080 H       1  MOL1        0.0425
     47  H14        9.1210    4.6000   25.8070 H       1  MOL1        0.0425
     48  H15        7.2120    4.4190   27.0640 H       1  MOL1        0.0621
     49  H16       10.4670    1.7790   27.9260 H       1  MOL1        0.0621
     50  H17        5.8900    3.3930   28.8800 H       1  MOL1        0.0618
     51  H18        9.1500    0.7450   29.7480 H       1  MOL1        0.0618
     52  H19        6.8580    1.5480   30.2270 H       1  MOL1        0.0618
     53  H20        8.0270    7.0690   28.4510 H       1  MOL1        0.1499
     54  H21        8.3980    7.7870   31.2360 H       1  MOL1        0.0667
     55  H22        5.2150    8.1890   29.3970 H       1  MOL1        0.0621
     56  H23        7.6320    5.7340   31.9230 H       1  MOL1        0.0621
     57  H24        3.3000    6.6670   29.7410 H       1  MOL1        0.0618
     58  H25        5.7260    4.2090   32.2730 H       1  MOL1        0.0618
     59  H26        3.5540    4.6680   31.1780 H       1  MOL1        0.0618
@<TRIPOS>BOND
     1     1     2    1
     2     1    34    1
     3     1    35    1
     4     1    36    1
     5     2     5    1
     6     2     3    1
     7     2    37    1
     8     3     4   ar
     9     3     9   ar
    10     5     6    1
    11     5    38    1
    12     5    39    1
    13     6     7    1
    14     6    40    1
    15     6    41    1
    16     7     8    2
    17     7    10   am
    18    10    11    1
    19    10    42    1
    20    11    12    1
    21    11    21    1
    22    11    43    1
    23    12    13    1
    24    12    44    1
    25    12    45    1
    26    13    14    1
    27    14    15    1
    28    14    46    1
    29    14    47    1
    30    15    16   ar
    31    15    17   ar
    32    16    18   ar
    33    16    48    1
    34    17    19   ar
    35    17    49    1
    36    18    20   ar
    37    18    50    1
    38    19    20   ar
    39    19    51    1
    40    20    52    1
    41    21    22    2
    42    21    23   am
    43    23    24    1
    44    23    53    1
    45    24    25    1
    46    24    31    1
    47    24    54    1
    48    25    26   ar
    49    25    27   ar
    50    26    28   ar
    51    26    55    1
    52    27    29   ar
    53    27    56    1
    54    28    30   ar
    55    28    57    1
    56    29    30   ar
    57    29    58    1
    58    30    59    1
    59    31    32   ar
    60    31    33   ar
