REMARK  2 active torsions:
REMARK  status: ('A' for Active; 'I' for Inactive)
REMARK    1  A    between atoms: C2_2  and  C10_10 
REMARK    2  A    between atoms: C12_12  and  N15_16 
ROOT
ATOM      1  C10 833 d          -0.284   9.162  -6.226  0.00  0.00     0.062 A 
ATOM      2  C11 833 d          -0.068   8.043  -5.400  0.00  0.00     0.081 A 
ATOM      3  C12 833 d           0.460   7.054  -6.230  0.00  0.00     0.117 A 
ATOM      4  N13 833 d           0.562   7.495  -7.482  0.00  0.00    -0.281 N 
ATOM      5  N14 833 d           0.108   8.836  -7.507  0.00  0.00    -0.296 N 
ATOM      6  H14 833 d           0.077   9.448  -8.322  1.00  0.00     0.187 HD
ATOM      7  C16 833 d           1.056   6.905  -8.764  0.00  0.00     0.179 C 
ENDROOT
BRANCH   1   8
ATOM      8  C2  833 d          -0.849  10.470  -5.775  0.00  0.00    -0.005 A 
ATOM      9  C1  833 d          -0.652  11.650  -6.540  0.00  0.00     0.053 A 
ATOM     10  C6  833 d          -1.237  12.816  -6.040  0.00  0.00     0.105 A 
ATOM     11  C5  833 d          -1.985  12.830  -4.764  0.00  0.00     0.105 A 
ATOM     12  O7  833 d          -1.235  14.109  -6.513  0.00  0.00    -0.323 OA
ATOM     13  C4  833 d          -2.162  11.671  -4.035  0.00  0.00     0.040 A 
ATOM     14  O9  833 d          -2.396  14.119  -4.504  0.00  0.00    -0.323 OA
ATOM     15  C3  833 d          -1.591  10.501  -4.550  0.00  0.00     0.017 A 
ATOM     16  C8  833 d          -2.068  14.924  -5.644  0.00  0.00     0.352 C 
ENDBRANCH   1   8
BRANCH   3  17
ATOM     17  N15 833 d           0.821   5.785  -5.837  0.00  0.00    -0.384 N 
ATOM     18  H7  833 d           0.718   5.502  -4.852  0.00  0.00     0.157 HD
ATOM     19  H8  833 d           1.194   5.118  -6.528  0.00  0.00     0.157 HD
ENDBRANCH   3  17
TORSDOF 2
