@<TRIPOS>MOLECULE
out_vina_1.pdbqt
 19 21 0 0 0
SMALL
GASTEIGER

@<TRIPOS>ATOM
      1  C10       -0.9120   10.3970   -6.0100 C.ar    0  8330        0.0620
      2  C11       -1.5980   10.1130   -4.8150 C.ar    0  8330        0.0810
      3  C12       -2.1100   11.3320   -4.3710 C.ar    0  8330        0.1170
      4  N13       -1.7710   12.3160   -5.2020 N.ar    0  8330       -0.2810
      5  N14       -1.0200   11.7490   -6.2600 N.ar    0  8330       -0.2960
      6  H14       -0.6300   12.2480   -7.0600 H       0  8330        0.1870
      7  C16       -2.0370   13.7860   -5.2500 C.3     0  8330        0.1790
      8  C2        -0.1900    9.3930   -6.8490 C.2     0  8330       -0.0050
      9  C1         0.5590    9.7980   -7.9860 C.2     0  8330        0.0530
     10  C6         1.2110    8.7830   -8.6910 C.2     0  8330        0.1050
     11  C5         1.0950    7.3610   -8.3000 C.2     0  8330        0.1050
     12  O7         1.9960    8.8210   -9.8210 O.2     0  8330       -0.3230
     13  C4         0.3600    6.9900   -7.1920 C.2     0  8330        0.0400
     14  O9         1.7970    6.5930   -9.2030 O.2     0  8330       -0.3230
     15  C3        -0.2750    8.0120   -6.4770 C.3     0  8330        0.0170
     16  C8         2.4910    7.4810  -10.0900 C.3     0  8330        0.3520
     17  N15       -2.8530   11.5230   -3.2280 N.pl3   0  8330       -0.3840
     18  H7        -3.7690   11.9920   -3.2820 H       0  8330        0.1570
     19  H8        -2.4950   11.1960   -2.3200 H       0  8330        0.1570
@<TRIPOS>BOND
     1    16    12    1
     2    16    14    1
     3    12    10    1
     4    14    11    1
     5    10    11    1
     6    10     9    2
     7    11    13    2
     8     9     8    1
     9    13    15    1
    10     6     5    1
    11     8    15    1
    12     8     1    2
    13     5     1   ar
    14     5     4   ar
    15     1     2   ar
    16     7     4    1
    17     4     3   ar
    18     2     3   ar
    19     3    17    1
    20    18    17    1
    21    17    19    1
