@<TRIPOS>MOLECULE
out_vina_1.pdbqt
 19 21 0 0 0
SMALL
GASTEIGER

@<TRIPOS>ATOM
      1  C10       -0.1600    8.7940   -6.1420 C.3     0  8330        0.0620
      2  C11       -0.2720    7.9620   -7.2720 C.2     0  8330        0.0810
      3  C12        0.0170    6.6730   -6.8260 C.2     0  8330        0.1170
      4  N13        0.3030    6.6780   -5.5260 N.pl3   0  8330       -0.2810
      5  N14        0.1860    8.0100   -5.0620 N.3     0  8330       -0.2960
      6  H14        0.3310    8.3310   -4.1050 H       0  8330        0.1870
      7  C16        0.6640    5.6240   -4.5280 C.3     0  8330        0.1790
      8  C2        -0.3760   10.2730   -6.1350 C.ar    0  8330       -0.0050
      9  C1        -1.4220   10.8510   -5.3680 C.ar    0  8330        0.0530
     10  C6        -1.5260   12.2430   -5.4160 C.ar    0  8330        0.1050
     11  C5        -0.6250   13.0670   -6.2510 C.ar    0  8330        0.1050
     12  O7        -2.4120   13.1100   -4.8160 O.3     0  8330       -0.3230
     13  C4         0.3840   12.4820   -6.9910 C.ar    0  8330        0.0400
     14  O9        -0.9980   14.3880   -6.1390 O.3     0  8330       -0.3230
     15  C3         0.4980   11.0890   -6.9240 C.ar    0  8330        0.0170
     16  C8        -2.0230   14.4720   -5.1400 C.3     0  8330        0.3520
     17  N15        0.0260    5.5370   -7.6050 N.pl3   0  8330       -0.3840
     18  H7         0.0500    4.6080   -7.1600 H       0  8330        0.1570
     19  H8         0.0080    5.6160   -8.6320 H       0  8330        0.1570
@<TRIPOS>BOND
     1    19    17    1
     2    17    18    1
     3    17     3    1
     4     2     3    2
     5     2     1    1
     6    13    15   ar
     7    13    11   ar
     8    15     8   ar
     9     3     4    1
    10    11    14    1
    11    11    10   ar
    12     1     8    1
    13     1     5    1
    14    14    16    1
    15     8     9   ar
    16     4     5    1
    17     4     7    1
    18    10     9   ar
    19    10    12    1
    20    16    12    1
    21     5     6    1
