MODEL 1
REMARK VINA RESULT:      -7.7      0.000      0.000
REMARK  2 active torsions:
REMARK  status: ('A' for Active; 'I' for Inactive)
REMARK    1  A    between atoms: C2_2  and  C10_10 
REMARK    2  A    between atoms: C12_12  and  N15_16 
ROOT
ATOM      1  C10 833 d          -0.390   8.618  -5.707  0.00  0.00     0.062 A 
ATOM      2  C11 833 d          -0.221   8.051  -6.984  0.00  0.00     0.081 A 
ATOM      3  C12 833 d           0.316   6.781  -6.768  0.00  0.00     0.117 A 
ATOM      4  N13 833 d           0.488   6.558  -5.467  0.00  0.00    -0.281 N 
ATOM      5  N14 833 d           0.036   7.703  -4.767  0.00  0.00    -0.296 N 
ATOM      6  H14 833 d           0.027   7.828  -3.756  1.00  0.00     0.187 HD
ATOM      7  C16 833 d           0.997   5.406  -4.660  0.00  0.00     0.179 C 
ENDROOT
BRANCH   1   8
ATOM      8  C2  833 d          -0.935   9.982  -5.435  0.00  0.00    -0.005 A 
ATOM      9  C1  833 d          -0.473  11.109  -6.166  0.00  0.00     0.053 A 
ATOM     10  C6  833 d          -1.060  12.336  -5.847  0.00  0.00     0.105 A 
ATOM     11  C5  833 d          -2.076  12.462  -4.780  0.00  0.00     0.105 A 
ATOM     12  O7  833 d          -0.845  13.602  -6.343  0.00  0.00    -0.323 OA
ATOM     13  C4  833 d          -2.509  11.354  -4.080  0.00  0.00     0.040 A 
ATOM     14  O9  833 d          -2.430  13.788  -4.658  0.00  0.00    -0.323 OA
ATOM     15  C3  833 d          -1.932  10.123  -4.416  0.00  0.00     0.017 A 
ATOM     16  C8  833 d          -1.786  14.515  -5.713  0.00  0.00     0.352 C 
ENDBRANCH   1   8
BRANCH   3  17
ATOM     17  N15 833 d           0.644   5.872  -7.748  0.00  0.00    -0.384 N 
ATOM     18  H7  833 d          -0.100   5.398  -8.281  0.00  0.00     0.157 HD
ATOM     19  H8  833 d           1.633   5.665  -7.949  0.00  0.00     0.157 HD
ENDBRANCH   3  17
TORSDOF 2
ENDMDL
MODEL 2
REMARK VINA RESULT:      -7.2      0.821      1.772
REMARK  2 active torsions:
REMARK  status: ('A' for Active; 'I' for Inactive)
REMARK    1  A    between atoms: C2_2  and  C10_10 
REMARK    2  A    between atoms: C12_12  and  N15_16 
ROOT
ATOM      1  C10 833 d          -0.160   8.794  -6.142  0.00  0.00     0.062 A 
ATOM      2  C11 833 d          -0.272   7.962  -7.272  0.00  0.00     0.081 A 
ATOM      3  C12 833 d           0.017   6.673  -6.826  0.00  0.00     0.117 A 
ATOM      4  N13 833 d           0.303   6.678  -5.526  0.00  0.00    -0.281 N 
ATOM      5  N14 833 d           0.186   8.010  -5.062  0.00  0.00    -0.296 N 
ATOM      6  H14 833 d           0.331   8.331  -4.105  1.00  0.00     0.187 HD
ATOM      7  C16 833 d           0.664   5.624  -4.528  0.00  0.00     0.179 C 
ENDROOT
BRANCH   1   8
ATOM      8  C2  833 d          -0.376  10.273  -6.135  0.00  0.00    -0.005 A 
ATOM      9  C1  833 d          -1.422  10.851  -5.368  0.00  0.00     0.053 A 
ATOM     10  C6  833 d          -1.526  12.243  -5.416  0.00  0.00     0.105 A 
ATOM     11  C5  833 d          -0.625  13.067  -6.251  0.00  0.00     0.105 A 
ATOM     12  O7  833 d          -2.412  13.110  -4.816  0.00  0.00    -0.323 OA
ATOM     13  C4  833 d           0.384  12.482  -6.991  0.00  0.00     0.040 A 
ATOM     14  O9  833 d          -0.998  14.388  -6.139  0.00  0.00    -0.323 OA
ATOM     15  C3  833 d           0.498  11.089  -6.924  0.00  0.00     0.017 A 
ATOM     16  C8  833 d          -2.023  14.472  -5.140  0.00  0.00     0.352 C 
ENDBRANCH   1   8
BRANCH   3  17
ATOM     17  N15 833 d           0.026   5.537  -7.605  0.00  0.00    -0.384 N 
ATOM     18  H7  833 d           0.050   4.608  -7.160  0.00  0.00     0.157 HD
ATOM     19  H8  833 d           0.008   5.616  -8.632  0.00  0.00     0.157 HD
ENDBRANCH   3  17
TORSDOF 2
ENDMDL
MODEL 3
REMARK VINA RESULT:      -7.0      4.275      6.497
REMARK  2 active torsions:
REMARK  status: ('A' for Active; 'I' for Inactive)
REMARK    1  A    between atoms: C2_2  and  C10_10 
REMARK    2  A    between atoms: C12_12  and  N15_16 
ROOT
ATOM      1  C10 833 d          -0.319  11.505  -6.751  0.00  0.00     0.062 A 
ATOM      2  C11 833 d          -0.990  10.815  -5.724  0.00  0.00     0.081 A 
ATOM      3  C12 833 d          -1.757  11.773  -5.060  0.00  0.00     0.117 A 
ATOM      4  N13 833 d          -1.583  12.975  -5.605  0.00  0.00    -0.281 N 
ATOM      5  N14 833 d          -0.684  12.834  -6.690  0.00  0.00    -0.296 N 
ATOM      6  H14 833 d          -0.366  13.577  -7.311  1.00  0.00     0.187 HD
ATOM      7  C16 833 d          -2.137  14.338  -5.335  0.00  0.00     0.179 C 
ENDROOT
BRANCH   1   8
ATOM      8  C2  833 d           0.629  10.889  -7.728  0.00  0.00    -0.005 A 
ATOM      9  C1  833 d           0.505   9.524  -8.100  0.00  0.00     0.053 A 
ATOM     10  C6  833 d           1.430   9.050  -9.033  0.00  0.00     0.105 A 
ATOM     11  C5  833 d           2.505   9.911  -9.574  0.00  0.00     0.105 A 
ATOM     12  O7  833 d           1.599   7.804  -9.594  0.00  0.00    -0.323 OA
ATOM     13  C4  833 d           2.608  11.235  -9.197  0.00  0.00     0.040 A 
ATOM     14  O9  833 d           3.287   9.162 -10.425  0.00  0.00    -0.323 OA
ATOM     15  C3  833 d           1.667  11.710  -8.276  0.00  0.00     0.017 A 
ATOM     16  C8  833 d           2.671   7.876 -10.573  0.00  0.00     0.352 C 
ENDBRANCH   1   8
BRANCH   3  17
ATOM     17  N15 833 d          -2.577  11.536  -3.980  0.00  0.00    -0.384 N 
ATOM     18  H7  833 d          -2.779  12.293  -3.311  0.00  0.00     0.157 HD
ATOM     19  H8  833 d          -2.989  10.602  -3.840  0.00  0.00     0.157 HD
ENDBRANCH   3  17
TORSDOF 2
ENDMDL
MODEL 4
REMARK VINA RESULT:      -7.0      1.544      2.623
REMARK  2 active torsions:
REMARK  status: ('A' for Active; 'I' for Inactive)
REMARK    1  A    between atoms: C2_2  and  C10_10 
REMARK    2  A    between atoms: C12_12  and  N15_16 
ROOT
ATOM      1  C10 833 d           0.153   9.124  -7.209  0.00  0.00     0.062 A 
ATOM      2  C11 833 d          -0.185   7.972  -6.474  0.00  0.00     0.081 A 
ATOM      3  C12 833 d           0.256   6.891  -7.237  0.00  0.00     0.117 A 
ATOM      4  N13 833 d           0.816   7.311  -8.369  0.00  0.00    -0.281 N 
ATOM      5  N14 833 d           0.776   8.727  -8.372  0.00  0.00    -0.296 N 
ATOM      6  H14 833 d           1.141   9.340  -9.101  1.00  0.00     0.187 HD
ATOM      7  C16 833 d           1.461   6.632  -9.535  0.00  0.00     0.179 C 
ENDROOT
BRANCH   1   8
ATOM      8  C2  833 d          -0.129  10.529  -6.786  0.00  0.00    -0.005 A 
ATOM      9  C1  833 d          -1.152  10.814  -5.843  0.00  0.00     0.053 A 
ATOM     10  C6  833 d          -1.323  12.158  -5.503  0.00  0.00     0.105 A 
ATOM     11  C5  833 d          -0.511  13.230  -6.120  0.00  0.00     0.105 A 
ATOM     12  O7  833 d          -2.209  12.774  -4.648  0.00  0.00    -0.323 OA
ATOM     13  C4  833 d           0.476  12.930  -7.037  0.00  0.00     0.040 A 
ATOM     14  O9  833 d          -0.937  14.446  -5.633  0.00  0.00    -0.323 OA
ATOM     15  C3  833 d           0.657  11.580  -7.360  0.00  0.00     0.017 A 
ATOM     16  C8  833 d          -1.903  14.194  -4.604  0.00  0.00     0.352 C 
ENDBRANCH   1   8
BRANCH   3  17
ATOM     17  N15 833 d           0.129   5.563  -6.897  0.00  0.00    -0.384 N 
ATOM     18  H7  833 d          -0.340   5.299  -6.018  0.00  0.00     0.157 HD
ATOM     19  H8  833 d           0.501   4.833  -7.521  0.00  0.00     0.157 HD
ENDBRANCH   3  17
TORSDOF 2
ENDMDL
MODEL 5
REMARK VINA RESULT:      -7.0      1.993      2.650
REMARK  2 active torsions:
REMARK  status: ('A' for Active; 'I' for Inactive)
REMARK    1  A    between atoms: C2_2  and  C10_10 
REMARK    2  A    between atoms: C12_12  and  N15_16 
ROOT
ATOM      1  C10 833 d           0.435   9.450  -7.770  0.00  0.00     0.062 A 
ATOM      2  C11 833 d           0.269   8.055  -7.685  0.00  0.00     0.081 A 
ATOM      3  C12 833 d           1.080   7.514  -8.683  0.00  0.00     0.117 A 
ATOM      4  N13 833 d           1.702   8.478  -9.358  0.00  0.00    -0.281 N 
ATOM      5  N14 833 d           1.321   9.719  -8.792  0.00  0.00    -0.296 N 
ATOM      6  H14 833 d           1.643  10.641  -9.085  1.00  0.00     0.187 HD
ATOM      7  C16 833 d           2.677   8.502 -10.492  0.00  0.00     0.179 C 
ENDROOT
BRANCH   1   8
ATOM      8  C2  833 d          -0.246  10.453  -6.897  0.00  0.00    -0.005 A 
ATOM      9  C1  833 d          -0.190  11.839  -7.202  0.00  0.00     0.053 A 
ATOM     10  C6  833 d          -0.876  12.691  -6.332  0.00  0.00     0.105 A 
ATOM     11  C5  833 d          -1.585  12.184  -5.138  0.00  0.00     0.105 A 
ATOM     12  O7  833 d          -1.018  14.061  -6.326  0.00  0.00    -0.323 OA
ATOM     13  C4  833 d          -1.624  10.832  -4.859  0.00  0.00     0.040 A 
ATOM     14  O9  833 d          -2.117  13.252  -4.449  0.00  0.00    -0.323 OA
ATOM     15  C3  833 d          -0.952   9.980  -5.744  0.00  0.00     0.017 A 
ATOM     16  C8  833 d          -1.904  14.432  -5.235  0.00  0.00     0.352 C 
ENDBRANCH   1   8
BRANCH   3  17
ATOM     17  N15 833 d           1.224   6.173  -8.962  0.00  0.00    -0.384 N 
ATOM     18  H7  833 d           2.156   5.736  -8.922  0.00  0.00     0.157 HD
ATOM     19  H8  833 d           0.400   5.607  -9.209  0.00  0.00     0.157 HD
ENDBRANCH   3  17
TORSDOF 2
ENDMDL
MODEL 6
REMARK VINA RESULT:      -6.8      3.718      6.129
REMARK  2 active torsions:
REMARK  status: ('A' for Active; 'I' for Inactive)
REMARK    1  A    between atoms: C2_2  and  C10_10 
REMARK    2  A    between atoms: C12_12  and  N15_16 
ROOT
ATOM      1  C10 833 d          -0.912  10.397  -6.010  0.00  0.00     0.062 A 
ATOM      2  C11 833 d          -1.598  10.113  -4.815  0.00  0.00     0.081 A 
ATOM      3  C12 833 d          -2.110  11.332  -4.371  0.00  0.00     0.117 A 
ATOM      4  N13 833 d          -1.771  12.316  -5.202  0.00  0.00    -0.281 N 
ATOM      5  N14 833 d          -1.020  11.749  -6.260  0.00  0.00    -0.296 N 
ATOM      6  H14 833 d          -0.630  12.248  -7.060  1.00  0.00     0.187 HD
ATOM      7  C16 833 d          -2.037  13.786  -5.250  0.00  0.00     0.179 C 
ENDROOT
BRANCH   1   8
ATOM      8  C2  833 d          -0.190   9.393  -6.849  0.00  0.00    -0.005 A 
ATOM      9  C1  833 d           0.559   9.798  -7.986  0.00  0.00     0.053 A 
ATOM     10  C6  833 d           1.211   8.783  -8.691  0.00  0.00     0.105 A 
ATOM     11  C5  833 d           1.095   7.361  -8.300  0.00  0.00     0.105 A 
ATOM     12  O7  833 d           1.996   8.821  -9.821  0.00  0.00    -0.323 OA
ATOM     13  C4  833 d           0.360   6.990  -7.192  0.00  0.00     0.040 A 
ATOM     14  O9  833 d           1.797   6.593  -9.203  0.00  0.00    -0.323 OA
ATOM     15  C3  833 d          -0.275   8.012  -6.477  0.00  0.00     0.017 A 
ATOM     16  C8  833 d           2.491   7.481 -10.090  0.00  0.00     0.352 C 
ENDBRANCH   1   8
BRANCH   3  17
ATOM     17  N15 833 d          -2.853  11.523  -3.228  0.00  0.00    -0.384 N 
ATOM     18  H7  833 d          -3.769  11.992  -3.282  0.00  0.00     0.157 HD
ATOM     19  H8  833 d          -2.495  11.196  -2.320  0.00  0.00     0.157 HD
ENDBRANCH   3  17
TORSDOF 2
ENDMDL
MODEL 7
REMARK VINA RESULT:      -6.8      3.558      5.946
REMARK  2 active torsions:
REMARK  status: ('A' for Active; 'I' for Inactive)
REMARK    1  A    between atoms: C2_2  and  C10_10 
REMARK    2  A    between atoms: C12_12  and  N15_16 
ROOT
ATOM      1  C10 833 d          -0.945  10.244  -5.871  0.00  0.00     0.062 A 
ATOM      2  C11 833 d          -1.106  11.618  -6.129  0.00  0.00     0.081 A 
ATOM      3  C12 833 d          -1.843  12.123  -5.058  0.00  0.00     0.117 A 
ATOM      4  N13 833 d          -2.141  11.155  -4.194  0.00  0.00    -0.281 N 
ATOM      5  N14 833 d          -1.572   9.952  -4.678  0.00  0.00    -0.296 N 
ATOM      6  H14 833 d          -1.618   9.039  -4.228  1.00  0.00     0.187 HD
ATOM      7  C16 833 d          -2.876  11.102  -2.893  0.00  0.00     0.179 C 
ENDROOT
BRANCH   1   8
ATOM      8  C2  833 d          -0.220   9.280  -6.753  0.00  0.00    -0.005 A 
ATOM      9  C1  833 d           0.459   9.728  -7.917  0.00  0.00     0.053 A 
ATOM     10  C6  833 d           1.120   8.749  -8.662  0.00  0.00     0.105 A 
ATOM     11  C5  833 d           1.081   7.320  -8.284  0.00  0.00     0.105 A 
ATOM     12  O7  833 d           1.852   8.832  -9.826  0.00  0.00    -0.323 OA
ATOM     13  C4  833 d           0.412   6.906  -7.150  0.00  0.00     0.040 A 
ATOM     14  O9  833 d           1.773   6.592  -9.228  0.00  0.00    -0.323 OA
ATOM     15  C3  833 d          -0.232   7.893  -6.395  0.00  0.00     0.017 A 
ATOM     16  C8  833 d           2.389   7.517 -10.133  0.00  0.00     0.352 C 
ENDBRANCH   1   8
BRANCH   3  17
ATOM     17  N15 833 d          -2.234  13.434  -4.900  0.00  0.00    -0.384 N 
ATOM     18  H7  833 d          -2.380  14.031  -5.726  0.00  0.00     0.157 HD
ATOM     19  H8  833 d          -2.381  13.817  -3.955  0.00  0.00     0.157 HD
ENDBRANCH   3  17
TORSDOF 2
ENDMDL
MODEL 8
REMARK VINA RESULT:      -6.6      3.991      6.227
REMARK  2 active torsions:
REMARK  status: ('A' for Active; 'I' for Inactive)
REMARK    1  A    between atoms: C2_2  and  C10_10 
REMARK    2  A    between atoms: C12_12  and  N15_16 
ROOT
ATOM      1  C10 833 d          -0.694  11.182  -6.589  0.00  0.00     0.062 A 
ATOM      2  C11 833 d          -1.263  10.705  -5.393  0.00  0.00     0.081 A 
ATOM      3  C12 833 d          -1.893  11.804  -4.808  0.00  0.00     0.117 A 
ATOM      4  N13 833 d          -1.731  12.893  -5.556  0.00  0.00    -0.281 N 
ATOM      5  N14 833 d          -0.984  12.525  -6.701  0.00  0.00    -0.296 N 
ATOM      6  H14 833 d          -0.711  13.140  -7.467  1.00  0.00     0.187 HD
ATOM      7  C16 833 d          -2.179  14.316  -5.447  0.00  0.00     0.179 C 
ENDROOT
BRANCH   1   8
ATOM      8  C2  833 d           0.092  10.358  -7.558  0.00  0.00    -0.005 A 
ATOM      9  C1  833 d           0.887  10.975  -8.560  0.00  0.00     0.053 A 
ATOM     10  C6  833 d           1.596  10.116  -9.402  0.00  0.00     0.105 A 
ATOM     11  C5  833 d           1.494   8.645  -9.284  0.00  0.00     0.105 A 
ATOM     12  O7  833 d           2.436  10.371 -10.463  0.00  0.00    -0.323 OA
ATOM     13  C4  833 d           0.712   8.067  -8.304  0.00  0.00     0.040 A 
ATOM     14  O9  833 d           2.257   8.066 -10.274  0.00  0.00    -0.323 OA
ATOM     15  C3  833 d           0.019   8.932  -7.449  0.00  0.00     0.017 A 
ATOM     16  C8  833 d           2.974   9.110 -10.945  0.00  0.00     0.352 C 
ENDBRANCH   1   8
BRANCH   3  17
ATOM     17  N15 833 d          -2.580  11.793  -3.615  0.00  0.00    -0.384 N 
ATOM     18  H7  833 d          -2.067  11.729  -2.725  0.00  0.00     0.157 HD
ATOM     19  H8  833 d          -3.609  11.850  -3.613  0.00  0.00     0.157 HD
ENDBRANCH   3  17
TORSDOF 2
ENDMDL
MODEL 9
REMARK VINA RESULT:      -6.6      2.664      3.236
REMARK  2 active torsions:
REMARK  status: ('A' for Active; 'I' for Inactive)
REMARK    1  A    between atoms: C2_2  and  C10_10 
REMARK    2  A    between atoms: C12_12  and  N15_16 
ROOT
ATOM      1  C10 833 d           1.001  10.008  -8.322  0.00  0.00     0.062 A 
ATOM      2  C11 833 d           1.724  10.568  -9.392  0.00  0.00     0.081 A 
ATOM      3  C12 833 d           2.323   9.494 -10.050  0.00  0.00     0.117 A 
ATOM      4  N13 833 d           2.022   8.346  -9.448  0.00  0.00    -0.281 N 
ATOM      5  N14 833 d           1.173   8.641  -8.354  0.00  0.00    -0.296 N 
ATOM      6  H14 833 d           0.763   7.966  -7.708  1.00  0.00     0.187 HD
ATOM      7  C16 833 d           2.354   6.910  -9.702  0.00  0.00     0.179 C 
ENDROOT
BRANCH   1   8
ATOM      8  C2  833 d           0.196  10.781  -7.328  0.00  0.00    -0.005 A 
ATOM      9  C1  833 d           0.116  12.197  -7.400  0.00  0.00     0.053 A 
ATOM     10  C6  833 d          -0.678  12.821  -6.434  0.00  0.00     0.105 A 
ATOM     11  C5  833 d          -1.363  12.054  -5.371  0.00  0.00     0.105 A 
ATOM     12  O7  833 d          -0.960  14.149  -6.210  0.00  0.00    -0.323 OA
ATOM     13  C4  833 d          -1.269  10.677  -5.319  0.00  0.00     0.040 A 
ATOM     14  O9  833 d          -2.021  12.935  -4.541  0.00  0.00    -0.323 OA
ATOM     15  C3  833 d          -0.489  10.055  -6.301  0.00  0.00     0.017 A 
ATOM     16  C8  833 d          -1.910  14.245  -5.113  0.00  0.00     0.352 C 
ENDBRANCH   1   8
BRANCH   3  17
ATOM     17  N15 833 d           3.130   9.583 -11.162  0.00  0.00    -0.384 N 
ATOM     18  H7  833 d           4.002   9.037 -11.211  0.00  0.00     0.157 HD
ATOM     19  H8  833 d           2.861  10.195 -11.946  0.00  0.00     0.157 HD
ENDBRANCH   3  17
TORSDOF 2
ENDMDL
MODEL 10
REMARK VINA RESULT:      -6.5      4.121      5.273
REMARK  2 active torsions:
REMARK  status: ('A' for Active; 'I' for Inactive)
REMARK    1  A    between atoms: C2_2  and  C10_10 
REMARK    2  A    between atoms: C12_12  and  N15_16 
ROOT
ATOM      1  C10 833 d           0.998  11.546  -8.747  0.00  0.00     0.062 A 
ATOM      2  C11 833 d           2.143  12.364  -8.705  0.00  0.00     0.081 A 
ATOM      3  C12 833 d           2.542  12.527 -10.032  0.00  0.00     0.117 A 
ATOM      4  N13 833 d           1.732  11.861 -10.853  0.00  0.00    -0.281 N 
ATOM      5  N14 833 d           0.734  11.238 -10.065  0.00  0.00    -0.296 N 
ATOM      6  H14 833 d          -0.038  10.668 -10.409  1.00  0.00     0.187 HD
ATOM      7  C16 833 d           1.658  11.684 -12.335  0.00  0.00     0.179 C 
ENDROOT
BRANCH   1   8
ATOM      8  C2  833 d           0.218  11.093  -7.555  0.00  0.00    -0.005 A 
ATOM      9  C1  833 d          -0.527  12.019  -6.778  0.00  0.00     0.053 A 
ATOM     10  C6  833 d          -1.235  11.490  -5.697  0.00  0.00     0.105 A 
ATOM     11  C5  833 d          -1.179  10.052  -5.354  0.00  0.00     0.105 A 
ATOM     12  O7  833 d          -2.033  12.092  -4.751  0.00  0.00    -0.323 OA
ATOM     13  C4  833 d          -0.446   9.169  -6.122  0.00  0.00     0.040 A 
ATOM     14  O9  833 d          -1.928   9.836  -4.218  0.00  0.00    -0.323 OA
ATOM     15  C3  833 d           0.246   9.701  -7.217  0.00  0.00     0.017 A 
ATOM     16  C8  833 d          -2.593  11.063  -3.890  0.00  0.00     0.352 C 
ENDBRANCH   1   8
BRANCH   3  17
ATOM     17  N15 833 d           3.627  13.258 -10.459  0.00  0.00    -0.384 N 
ATOM     18  H7  833 d           3.909  13.231 -11.449  0.00  0.00     0.157 HD
ATOM     19  H8  833 d           4.158  13.833  -9.788  0.00  0.00     0.157 HD
ENDBRANCH   3  17
TORSDOF 2
ENDMDL
MODEL 11
REMARK VINA RESULT:      -6.4      2.867      3.765
REMARK  2 active torsions:
REMARK  status: ('A' for Active; 'I' for Inactive)
REMARK    1  A    between atoms: C2_2  and  C10_10 
REMARK    2  A    between atoms: C12_12  and  N15_16 
ROOT
ATOM      1  C10 833 d           0.986   9.738  -8.450  0.00  0.00     0.062 A 
ATOM      2  C11 833 d           1.658  10.386  -9.503  0.00  0.00     0.081 A 
ATOM      3  C12 833 d           2.362   9.387 -10.176  0.00  0.00     0.117 A 
ATOM      4  N13 833 d           2.169   8.204  -9.598  0.00  0.00    -0.281 N 
ATOM      5  N14 833 d           1.288   8.394  -8.505  0.00  0.00    -0.296 N 
ATOM      6  H14 833 d           0.942   7.671  -7.876  1.00  0.00     0.187 HD
ATOM      7  C16 833 d           2.639   6.812  -9.876  0.00  0.00     0.179 C 
ENDROOT
BRANCH   1   8
ATOM      8  C2  833 d           0.104  10.410  -7.448  0.00  0.00    -0.005 A 
ATOM      9  C1  833 d          -0.396   9.698  -6.325  0.00  0.00     0.053 A 
ATOM     10  C6  833 d          -1.197  10.423  -5.439  0.00  0.00     0.105 A 
ATOM     11  C5  833 d          -1.539  11.842  -5.678  0.00  0.00     0.105 A 
ATOM     12  O7  833 d          -1.840  10.049  -4.281  0.00  0.00    -0.323 OA
ATOM     13  C4  833 d          -1.044  12.514  -6.777  0.00  0.00     0.040 A 
ATOM     14  O9  833 d          -2.378  12.272  -4.673  0.00  0.00    -0.323 OA
ATOM     15  C3  833 d          -0.226  11.789  -7.652  0.00  0.00     0.017 A 
ATOM     16  C8  833 d          -2.478  11.221  -3.703  0.00  0.00     0.352 C 
ENDBRANCH   1   8
BRANCH   3  17
ATOM     17  N15 833 d           3.163   9.575 -11.280  0.00  0.00    -0.384 N 
ATOM     18  H7  833 d           4.088   9.125 -11.327  0.00  0.00     0.157 HD
ATOM     19  H8  833 d           2.838  10.166 -12.059  0.00  0.00     0.157 HD
ENDBRANCH   3  17
TORSDOF 2
ENDMDL
MODEL 12
REMARK VINA RESULT:      -6.3      2.666      3.724
REMARK  2 active torsions:
REMARK  status: ('A' for Active; 'I' for Inactive)
REMARK    1  A    between atoms: C2_2  and  C10_10 
REMARK    2  A    between atoms: C12_12  and  N15_16 
ROOT
ATOM      1  C10 833 d           0.896   9.241  -8.399  0.00  0.00     0.062 A 
ATOM      2  C11 833 d           1.051   7.843  -8.329  0.00  0.00     0.081 A 
ATOM      3  C12 833 d           1.885   7.500  -9.393  0.00  0.00     0.117 A 
ATOM      4  N13 833 d           2.225   8.580 -10.093  0.00  0.00    -0.281 N 
ATOM      5  N14 833 d           1.621   9.703  -9.477  0.00  0.00    -0.296 N 
ATOM      6  H14 833 d           1.707  10.674  -9.775  1.00  0.00     0.187 HD
ATOM      7  C16 833 d           3.082   8.824 -11.294  0.00  0.00     0.179 C 
ENDROOT
BRANCH   1   8
ATOM      8  C2  833 d           0.076  10.065  -7.460  0.00  0.00    -0.005 A 
ATOM      9  C1  833 d          -0.491   9.489  -6.293  0.00  0.00     0.053 A 
ATOM     10  C6  833 d          -1.224  10.351  -5.472  0.00  0.00     0.105 A 
ATOM     11  C5  833 d          -1.433  11.773  -5.821  0.00  0.00     0.105 A 
ATOM     12  O7  833 d          -1.903  10.127  -4.296  0.00  0.00    -0.323 OA
ATOM     13  C4  833 d          -0.874  12.311  -6.963  0.00  0.00     0.040 A 
ATOM     14  O9  833 d          -2.233  12.353  -4.861  0.00  0.00    -0.323 OA
ATOM     15  C3  833 d          -0.124  11.449  -7.772  0.00  0.00     0.017 A 
ATOM     16  C8  833 d          -2.432  11.392  -3.815  0.00  0.00     0.352 C 
ENDBRANCH   1   8
BRANCH   3  17
ATOM     17  N15 833 d           2.302   6.226  -9.707  0.00  0.00    -0.384 N 
ATOM     18  H7  833 d           2.685   6.024 -10.642  0.00  0.00     0.157 HD
ATOM     19  H8  833 d           2.232   5.473  -9.006  0.00  0.00     0.157 HD
ENDBRANCH   3  17
TORSDOF 2
ENDMDL
MODEL 13
REMARK VINA RESULT:      -6.1      3.778      4.834
REMARK  2 active torsions:
REMARK  status: ('A' for Active; 'I' for Inactive)
REMARK    1  A    between atoms: C2_2  and  C10_10 
REMARK    2  A    between atoms: C12_12  and  N15_16 
ROOT
ATOM      1  C10 833 d           1.151  11.578  -8.227  0.00  0.00     0.062 A 
ATOM      2  C11 833 d           1.987  12.655  -8.576  0.00  0.00     0.081 A 
ATOM      3  C12 833 d           2.752  12.208  -9.653  0.00  0.00     0.117 A 
ATOM      4  N13 833 d           2.444  10.950  -9.960  0.00  0.00    -0.281 N 
ATOM      5  N14 833 d           1.420  10.528  -9.078  0.00  0.00    -0.296 N 
ATOM      6  H14 833 d           0.965   9.615  -9.073  1.00  0.00     0.187 HD
ATOM      7  C16 833 d           2.910   9.980 -10.998  0.00  0.00     0.179 C 
ENDROOT
BRANCH   1   8
ATOM      8  C2  833 d           0.152  11.588  -7.115  0.00  0.00    -0.005 A 
ATOM      9  C1  833 d          -0.237  10.381  -6.476  0.00  0.00     0.053 A 
ATOM     10  C6  833 d          -1.162  10.501  -5.436  0.00  0.00     0.105 A 
ATOM     11  C5  833 d          -1.736  11.808  -5.049  0.00  0.00     0.105 A 
ATOM     12  O7  833 d          -1.750   9.555  -4.628  0.00  0.00    -0.323 OA
ATOM     13  C4  833 d          -1.345  12.969  -5.686  0.00  0.00     0.040 A 
ATOM     14  O9  833 d          -2.651  11.610  -4.039  0.00  0.00    -0.323 OA
ATOM     15  C3  833 d          -0.403  12.846  -6.714  0.00  0.00     0.017 A 
ATOM     16  C8  833 d          -2.586  10.231  -3.650  0.00  0.00     0.352 C 
ENDBRANCH   1   8
BRANCH   3  17
ATOM     17  N15 833 d           3.710  12.942 -10.316  0.00  0.00    -0.384 N 
ATOM     18  H7  833 d           4.045  13.831  -9.918  0.00  0.00     0.157 HD
ATOM     19  H8  833 d           4.092  12.602 -11.211  0.00  0.00     0.157 HD
ENDBRANCH   3  17
TORSDOF 2
ENDMDL
MODEL 14
REMARK VINA RESULT:      -6.1      4.400      6.499
REMARK  2 active torsions:
REMARK  status: ('A' for Active; 'I' for Inactive)
REMARK    1  A    between atoms: C2_2  and  C10_10 
REMARK    2  A    between atoms: C12_12  and  N15_16 
ROOT
ATOM      1  C10 833 d           0.118  10.906  -7.225  0.00  0.00     0.062 A 
ATOM      2  C11 833 d          -0.305   9.969  -6.263  0.00  0.00     0.081 A 
ATOM      3  C12 833 d          -1.169  10.659  -5.413  0.00  0.00     0.117 A 
ATOM      4  N13 833 d          -1.281  11.932  -5.788  0.00  0.00    -0.281 N 
ATOM      5  N14 833 d          -0.484  12.114  -6.944  0.00  0.00    -0.296 N 
ATOM      6  H14 833 d          -0.375  12.980  -7.473  1.00  0.00     0.187 HD
ATOM      7  C16 833 d          -2.053  13.109  -5.284  0.00  0.00     0.179 C 
ENDROOT
BRANCH   1   8
ATOM      8  C2  833 d           1.064  10.623  -8.347  0.00  0.00    -0.005 A 
ATOM      9  C1  833 d           1.324   9.289  -8.759  0.00  0.00     0.053 A 
ATOM     10  C6  833 d           2.210   9.135  -9.829  0.00  0.00     0.105 A 
ATOM     11  C5  833 d           2.870  10.293 -10.470  0.00  0.00     0.105 A 
ATOM     12  O7  833 d           2.682   8.008 -10.463  0.00  0.00    -0.323 OA
ATOM     13  C4  833 d           2.604  11.581 -10.051  0.00  0.00     0.040 A 
ATOM     14  O9  833 d           3.720   9.832 -11.451  0.00  0.00    -0.323 OA
ATOM     15  C3  833 d           1.701  11.732  -8.992  0.00  0.00     0.017 A 
ATOM     16  C8  833 d           3.526   8.417 -11.573  0.00  0.00     0.352 C 
ENDBRANCH   1   8
BRANCH   3  17
ATOM     17  N15 833 d          -1.818  10.126  -4.323  0.00  0.00    -0.384 N 
ATOM     18  H7  833 d          -2.723   9.650  -4.444  0.00  0.00     0.157 HD
ATOM     19  H8  833 d          -1.398  10.203  -3.385  0.00  0.00     0.157 HD
ENDBRANCH   3  17
TORSDOF 2
ENDMDL
MODEL 15
REMARK VINA RESULT:      -5.8      4.222      6.195
REMARK  2 active torsions:
REMARK  status: ('A' for Active; 'I' for Inactive)
REMARK    1  A    between atoms: C2_2  and  C10_10 
REMARK    2  A    between atoms: C12_12  and  N15_16 
ROOT
ATOM      1  C10 833 d          -0.594  11.827  -6.874  0.00  0.00     0.062 A 
ATOM      2  C11 833 d          -0.875  13.138  -6.447  0.00  0.00     0.081 A 
ATOM      3  C12 833 d          -1.614  13.005  -5.271  0.00  0.00     0.117 A 
ATOM      4  N13 833 d          -1.801  11.720  -4.976  0.00  0.00    -0.281 N 
ATOM      5  N14 833 d          -1.154  10.948  -5.971  0.00  0.00    -0.296 N 
ATOM      6  H14 833 d          -1.109   9.931  -6.012  1.00  0.00     0.187 HD
ATOM      7  C16 833 d          -2.484  10.989  -3.865  0.00  0.00     0.179 C 
ENDROOT
BRANCH   1   8
ATOM      8  C2  833 d           0.176  11.467  -8.104  0.00  0.00    -0.005 A 
ATOM      9  C1  833 d          -0.445  11.482  -9.381  0.00  0.00     0.053 A 
ATOM     10  C6  833 d           0.368  11.148 -10.467  0.00  0.00     0.105 A 
ATOM     11  C5  833 d           1.785  10.760 -10.293  0.00  0.00     0.105 A 
ATOM     12  O7  833 d           0.093  11.054 -11.813  0.00  0.00    -0.323 OA
ATOM     13  C4  833 d           2.367  10.750  -9.041  0.00  0.00     0.040 A 
ATOM     14  O9  833 d           2.311  10.437 -11.524  0.00  0.00    -0.323 OA
ATOM     15  C3  833 d           1.554  11.105  -7.958  0.00  0.00     0.017 A 
ATOM     16  C8  833 d           1.325  10.743 -12.519  0.00  0.00     0.352 C 
ENDBRANCH   1   8
BRANCH   3  17
ATOM     17  N15 833 d          -2.104  14.041  -4.509  0.00  0.00    -0.384 N 
ATOM     18  H7  833 d          -2.170  13.943  -3.486  0.00  0.00     0.157 HD
ATOM     19  H8  833 d          -2.406  14.916  -4.963  0.00  0.00     0.157 HD
ENDBRANCH   3  17
TORSDOF 2
ENDMDL
MODEL 16
REMARK VINA RESULT:      -5.8      2.431      3.286
REMARK  2 active torsions:
REMARK  status: ('A' for Active; 'I' for Inactive)
REMARK    1  A    between atoms: C2_2  and  C10_10 
REMARK    2  A    between atoms: C12_12  and  N15_16 
ROOT
ATOM      1  C10 833 d           0.848   8.193  -8.752  0.00  0.00     0.062 A 
ATOM      2  C11 833 d           0.340   7.884 -10.027  0.00  0.00     0.081 A 
ATOM      3  C12 833 d           1.234   6.969 -10.581  0.00  0.00     0.117 A 
ATOM      4  N13 833 d           2.236   6.721  -9.741  0.00  0.00    -0.281 N 
ATOM      5  N14 833 d           2.011   7.477  -8.564  0.00  0.00    -0.296 N 
ATOM      6  H14 833 d           2.600   7.488  -7.732  1.00  0.00     0.187 HD
ATOM      7  C16 833 d           3.446   5.843  -9.781  0.00  0.00     0.179 C 
ENDROOT
BRANCH   1   8
ATOM      8  C2  833 d           0.224   9.144  -7.782  0.00  0.00    -0.005 A 
ATOM      9  C1  833 d           0.057  10.515  -8.112  0.00  0.00     0.053 A 
ATOM     10  C6  833 d          -0.554  11.315  -7.143  0.00  0.00     0.105 A 
ATOM     11  C5  833 d          -0.967  10.773  -5.830  0.00  0.00     0.105 A 
ATOM     12  O7  833 d          -0.854  12.658  -7.131  0.00  0.00    -0.323 OA
ATOM     13  C4  833 d          -0.793   9.437  -5.529  0.00  0.00     0.040 A 
ATOM     14  O9  833 d          -1.487  11.799  -5.071  0.00  0.00    -0.323 OA
ATOM     15  C3  833 d          -0.198   8.635  -6.511  0.00  0.00     0.017 A 
ATOM     16  C8  833 d          -1.563  12.966  -5.900  0.00  0.00     0.352 C 
ENDBRANCH   1   8
BRANCH   3  17
ATOM     17  N15 833 d           1.127   6.396 -11.829  0.00  0.00    -0.384 N 
ATOM     18  H7  833 d           0.197   6.213 -12.233  0.00  0.00     0.157 HD
ATOM     19  H8  833 d           1.976   6.150 -12.358  0.00  0.00     0.157 HD
ENDBRANCH   3  17
TORSDOF 2
ENDMDL
MODEL 17
REMARK VINA RESULT:      -5.4      5.067      6.544
REMARK  2 active torsions:
REMARK  status: ('A' for Active; 'I' for Inactive)
REMARK    1  A    between atoms: C2_2  and  C10_10 
REMARK    2  A    between atoms: C12_12  and  N15_16 
ROOT
ATOM      1  C10 833 d           1.629  11.787  -9.837  0.00  0.00     0.062 A 
ATOM      2  C11 833 d           2.792  12.557  -9.643  0.00  0.00     0.081 A 
ATOM      3  C12 833 d           2.995  13.247 -10.838  0.00  0.00     0.117 A 
ATOM      4  N13 833 d           2.053  12.937 -11.726  0.00  0.00    -0.281 N 
ATOM      5  N14 833 d           1.164  12.021 -11.113  0.00  0.00    -0.296 N 
ATOM      6  H14 833 d           0.333  11.610 -11.538  1.00  0.00     0.187 HD
ATOM      7  C16 833 d           1.755  13.362 -13.129  0.00  0.00     0.179 C 
ENDROOT
BRANCH   1   8
ATOM      8  C2  833 d           1.022  10.873  -8.823  0.00  0.00    -0.005 A 
ATOM      9  C1  833 d           0.453  11.387  -7.628  0.00  0.00     0.053 A 
ATOM     10  C6  833 d          -0.105  10.450  -6.755  0.00  0.00     0.105 A 
ATOM     11  C5  833 d          -0.069   8.999  -7.039  0.00  0.00     0.105 A 
ATOM     12  O7  833 d          -0.717  10.599  -5.530  0.00  0.00    -0.323 OA
ATOM     13  C4  833 d           0.491   8.520  -8.207  0.00  0.00     0.040 A 
ATOM     14  O9  833 d          -0.643   8.324  -5.984  0.00  0.00    -0.323 OA
ATOM     15  C3  833 d           1.032   9.465  -9.088  0.00  0.00     0.017 A 
ATOM     16  C8  833 d          -1.188   9.298  -5.083  0.00  0.00     0.352 C 
ENDBRANCH   1   8
BRANCH   3  17
ATOM     17  N15 833 d           4.026  14.122 -11.094  0.00  0.00    -0.384 N 
ATOM     18  H7  833 d           4.743  13.882 -11.794  0.00  0.00     0.157 HD
ATOM     19  H8  833 d           4.081  15.016 -10.586  0.00  0.00     0.157 HD
ENDBRANCH   3  17
TORSDOF 2
ENDMDL
