@<TRIPOS>MOLECULE
out_vina_1.pdbqt
 19 21 0 0 0
SMALL
GASTEIGER

@<TRIPOS>ATOM
      1  C10       -0.9450   10.2440   -5.8710 C.ar    0  8330        0.0620
      2  C11       -1.1060   11.6180   -6.1290 C.ar    0  8330        0.0810
      3  C12       -1.8430   12.1230   -5.0580 C.ar    0  8330        0.1170
      4  N13       -2.1410   11.1550   -4.1940 N.ar    0  8330       -0.2810
      5  N14       -1.5720    9.9520   -4.6780 N.ar    0  8330       -0.2960
      6  H14       -1.6180    9.0390   -4.2280 H       0  8330        0.1870
      7  C16       -2.8760   11.1020   -2.8930 C.3     0  8330        0.1790
      8  C2        -0.2200    9.2800   -6.7530 C.2     0  8330       -0.0050
      9  C1         0.4590    9.7280   -7.9170 C.2     0  8330        0.0530
     10  C6         1.1200    8.7490   -8.6620 C.2     0  8330        0.1050
     11  C5         1.0810    7.3200   -8.2840 C.2     0  8330        0.1050
     12  O7         1.8520    8.8320   -9.8260 O.2     0  8330       -0.3230
     13  C4         0.4120    6.9060   -7.1500 C.2     0  8330        0.0400
     14  O9         1.7730    6.5920   -9.2280 O.2     0  8330       -0.3230
     15  C3        -0.2320    7.8930   -6.3950 C.3     0  8330        0.0170
     16  C8         2.3890    7.5170  -10.1330 C.3     0  8330        0.3520
     17  N15       -2.2340   13.4340   -4.9000 N.pl3   0  8330       -0.3840
     18  H7        -2.3800   14.0310   -5.7260 H       0  8330        0.1570
     19  H8        -2.3810   13.8170   -3.9550 H       0  8330        0.1570
@<TRIPOS>BOND
     1    16    12    1
     2    16    14    1
     3    12    10    1
     4    14    11    1
     5    10    11    1
     6    10     9    2
     7    11    13    2
     8     9     8    1
     9    13    15    1
    10     8    15    1
    11     8     1    2
    12     2     1   ar
    13     2     3   ar
    14     1     5   ar
    15    18    17    1
    16     3    17    1
    17     3     4   ar
    18    17    19    1
    19     5     6    1
    20     5     4   ar
    21     4     7    1
