@<TRIPOS>MOLECULE
out_vina_1.pdbqt
 19 21 0 0 0
SMALL
GASTEIGER

@<TRIPOS>ATOM
      1  C10        0.9860    9.7380   -8.4500 C.ar    0  8330        0.0620
      2  C11        1.6580   10.3860   -9.5030 C.ar    0  8330        0.0810
      3  C12        2.3620    9.3870  -10.1760 C.ar    0  8330        0.1170
      4  N13        2.1690    8.2040   -9.5980 N.ar    0  8330       -0.2810
      5  N14        1.2880    8.3940   -8.5050 N.ar    0  8330       -0.2960
      6  H14        0.9420    7.6710   -7.8760 H       0  8330        0.1870
      7  C16        2.6390    6.8120   -9.8760 C.3     0  8330        0.1790
      8  C2         0.1040   10.4100   -7.4480 C.2     0  8330       -0.0050
      9  C1        -0.3960    9.6980   -6.3250 C.2     0  8330        0.0530
     10  C6        -1.1970   10.4230   -5.4390 C.2     0  8330        0.1050
     11  C5        -1.5390   11.8420   -5.6780 C.2     0  8330        0.1050
     12  O7        -1.8400   10.0490   -4.2810 O.2     0  8330       -0.3230
     13  C4        -1.0440   12.5140   -6.7770 C.2     0  8330        0.0400
     14  O9        -2.3780   12.2720   -4.6730 O.2     0  8330       -0.3230
     15  C3        -0.2260   11.7890   -7.6520 C.3     0  8330        0.0170
     16  C8        -2.4780   11.2210   -3.7030 C.3     0  8330        0.3520
     17  N15        3.1630    9.5750  -11.2800 N.pl3   0  8330       -0.3840
     18  H7         4.0880    9.1250  -11.3270 H       0  8330        0.1570
     19  H8         2.8380   10.1660  -12.0590 H       0  8330        0.1570
@<TRIPOS>BOND
     1    19    17    1
     2    18    17    1
     3    17     3    1
     4     3     4   ar
     5     3     2   ar
     6     7     4    1
     7     4     5   ar
     8     2     1   ar
     9     5     1   ar
    10     5     6    1
    11     1     8    2
    12    15     8    1
    13    15    13    1
    14     8     9    1
    15    13    11    2
    16     9    10    2
    17    11    10    1
    18    11    14    1
    19    10    12    1
    20    14    16    1
    21    12    16    1
