@<TRIPOS>MOLECULE
out_vina_1.pdbqt
 19 21 0 0 0
SMALL
GASTEIGER

@<TRIPOS>ATOM
      1  C10        1.0010   10.0080   -8.3220 C.ar    0  8330        0.0620
      2  C11        1.7240   10.5680   -9.3920 C.ar    0  8330        0.0810
      3  C12        2.3230    9.4940  -10.0500 C.ar    0  8330        0.1170
      4  N13        2.0220    8.3460   -9.4480 N.ar    0  8330       -0.2810
      5  N14        1.1730    8.6410   -8.3540 N.ar    0  8330       -0.2960
      6  H14        0.7630    7.9660   -7.7080 H       0  8330        0.1870
      7  C16        2.3540    6.9100   -9.7020 C.3     0  8330        0.1790
      8  C2         0.1960   10.7810   -7.3280 C.2     0  8330       -0.0050
      9  C1         0.1160   12.1970   -7.4000 C.2     0  8330        0.0530
     10  C6        -0.6780   12.8210   -6.4340 C.2     0  8330        0.1050
     11  C5        -1.3630   12.0540   -5.3710 C.2     0  8330        0.1050
     12  O7        -0.9600   14.1490   -6.2100 O.2     0  8330       -0.3230
     13  C4        -1.2690   10.6770   -5.3190 C.2     0  8330        0.0400
     14  O9        -2.0210   12.9350   -4.5410 O.2     0  8330       -0.3230
     15  C3        -0.4890   10.0550   -6.3010 C.3     0  8330        0.0170
     16  C8        -1.9100   14.2450   -5.1130 C.3     0  8330        0.3520
     17  N15        3.1300    9.5830  -11.1620 N.pl3   0  8330       -0.3840
     18  H7         4.0020    9.0370  -11.2110 H       0  8330        0.1570
     19  H8         2.8610   10.1950  -11.9460 H       0  8330        0.1570
@<TRIPOS>BOND
     1    19    17    1
     2    18    17    1
     3    17     3    1
     4     3     4   ar
     5     3     2   ar
     6     7     4    1
     7     4     5   ar
     8     2     1   ar
     9     5     1   ar
    10     5     6    1
    11     1     8    2
    12     9     8    1
    13     9    10    2
    14     8    15    1
    15    10    12    1
    16    10    11    1
    17    15    13    1
    18    12    16    1
    19    11    13    2
    20    11    14    1
    21    16    14    1
