@<TRIPOS>MOLECULE
out_vina_1.pdbqt
 19 21 0 0 0
SMALL
GASTEIGER

@<TRIPOS>ATOM
      1  C10        0.9980   11.5460   -8.7470 C.3     0  8330        0.0620
      2  C11        2.1430   12.3640   -8.7050 C.2     0  8330        0.0810
      3  C12        2.5420   12.5270  -10.0320 C.2     0  8330        0.1170
      4  N13        1.7320   11.8610  -10.8530 N.pl3   0  8330       -0.2810
      5  N14        0.7340   11.2380  -10.0650 N.3     0  8330       -0.2960
      6  H14       -0.0380   10.6680  -10.4090 H       0  8330        0.1870
      7  C16        1.6580   11.6840  -12.3350 C.3     0  8330        0.1790
      8  C2         0.2180   11.0930   -7.5550 C.ar    0  8330       -0.0050
      9  C1        -0.5270   12.0190   -6.7780 C.ar    0  8330        0.0530
     10  C6        -1.2350   11.4900   -5.6970 C.ar    0  8330        0.1050
     11  C5        -1.1790   10.0520   -5.3540 C.ar    0  8330        0.1050
     12  O7        -2.0330   12.0920   -4.7510 O.3     0  8330       -0.3230
     13  C4        -0.4460    9.1690   -6.1220 C.ar    0  8330        0.0400
     14  O9        -1.9280    9.8360   -4.2180 O.3     0  8330       -0.3230
     15  C3         0.2460    9.7010   -7.2170 C.ar    0  8330        0.0170
     16  C8        -2.5930   11.0630   -3.8900 C.3     0  8330        0.3520
     17  N15        3.6270   13.2580  -10.4590 N.pl3   0  8330       -0.3840
     18  H7         3.9090   13.2310  -11.4490 H       0  8330        0.1570
     19  H8         4.1580   13.8330   -9.7880 H       0  8330        0.1570
@<TRIPOS>BOND
     1     7     4    1
     2    18    17    1
     3     4     5    1
     4     4     3    1
     5    17     3    1
     6    17    19    1
     7     6     5    1
     8     5     1    1
     9     3     2    2
    10     1     2    1
    11     1     8    1
    12     8    15   ar
    13     8     9   ar
    14    15    13   ar
    15     9    10   ar
    16    13    11   ar
    17    10    11   ar
    18    10    12    1
    19    11    14    1
    20    12    16    1
    21    14    16    1
