@<TRIPOS>MOLECULE
out_vina_1.pdbqt
 19 21 0 0 0
SMALL
GASTEIGER

@<TRIPOS>ATOM
      1  C10        0.1530    9.1240   -7.2090 C.3     0  8330        0.0620
      2  C11       -0.1850    7.9720   -6.4740 C.2     0  8330        0.0810
      3  C12        0.2560    6.8910   -7.2370 C.2     0  8330        0.1170
      4  N13        0.8160    7.3110   -8.3690 N.pl3   0  8330       -0.2810
      5  N14        0.7760    8.7270   -8.3720 N.3     0  8330       -0.2960
      6  H14        1.1410    9.3400   -9.1010 H       0  8330        0.1870
      7  C16        1.4610    6.6320   -9.5350 C.3     0  8330        0.1790
      8  C2        -0.1290   10.5290   -6.7860 C.ar    0  8330       -0.0050
      9  C1        -1.1520   10.8140   -5.8430 C.ar    0  8330        0.0530
     10  C6        -1.3230   12.1580   -5.5030 C.ar    0  8330        0.1050
     11  C5        -0.5110   13.2300   -6.1200 C.ar    0  8330        0.1050
     12  O7        -2.2090   12.7740   -4.6480 O.3     0  8330       -0.3230
     13  C4         0.4760   12.9300   -7.0370 C.ar    0  8330        0.0400
     14  O9        -0.9370   14.4460   -5.6330 O.3     0  8330       -0.3230
     15  C3         0.6570   11.5800   -7.3600 C.ar    0  8330        0.0170
     16  C8        -1.9030   14.1940   -4.6040 C.3     0  8330        0.3520
     17  N15        0.1290    5.5630   -6.8970 N.pl3   0  8330       -0.3840
     18  H7        -0.3400    5.2990   -6.0180 H       0  8330        0.1570
     19  H8         0.5010    4.8330   -7.5210 H       0  8330        0.1570
@<TRIPOS>BOND
     1     7     4    1
     2     6     5    1
     3     5     4    1
     4     5     1    1
     5     4     3    1
     6    19    17    1
     7    15    13   ar
     8    15     8   ar
     9     3    17    1
    10     3     2    2
    11     1     8    1
    12     1     2    1
    13    13    11   ar
    14    17    18    1
    15     8     9   ar
    16    11    14    1
    17    11    10   ar
    18     9    10   ar
    19    14    16    1
    20    10    12    1
    21    12    16    1
