@<TRIPOS>MOLECULE
out_vina_1.pdbqt
 19 21 0 0 0
SMALL
GASTEIGER

@<TRIPOS>ATOM
      1  C10        0.8480    8.1930   -8.7520 C.3     0  8330        0.0620
      2  C11        0.3400    7.8840  -10.0270 C.2     0  8330        0.0810
      3  C12        1.2340    6.9690  -10.5810 C.2     0  8330        0.1170
      4  N13        2.2360    6.7210   -9.7410 N.pl3   0  8330       -0.2810
      5  N14        2.0110    7.4770   -8.5640 N.3     0  8330       -0.2960
      6  H14        2.6000    7.4880   -7.7320 H       0  8330        0.1870
      7  C16        3.4460    5.8430   -9.7810 C.3     0  8330        0.1790
      8  C2         0.2240    9.1440   -7.7820 C.ar    0  8330       -0.0050
      9  C1         0.0570   10.5150   -8.1120 C.ar    0  8330        0.0530
     10  C6        -0.5540   11.3150   -7.1430 C.ar    0  8330        0.1050
     11  C5        -0.9670   10.7730   -5.8300 C.ar    0  8330        0.1050
     12  O7        -0.8540   12.6580   -7.1310 O.3     0  8330       -0.3230
     13  C4        -0.7930    9.4370   -5.5290 C.ar    0  8330        0.0400
     14  O9        -1.4870   11.7990   -5.0710 O.3     0  8330       -0.3230
     15  C3        -0.1980    8.6350   -6.5110 C.ar    0  8330        0.0170
     16  C8        -1.5630   12.9660   -5.9000 C.3     0  8330        0.3520
     17  N15        1.1270    6.3960  -11.8290 N.pl3   0  8330       -0.3840
     18  H7         0.1970    6.2130  -12.2330 H       0  8330        0.1570
     19  H8         1.9760    6.1500  -12.3580 H       0  8330        0.1570
@<TRIPOS>BOND
     1    19    17    1
     2    18    17    1
     3    17     3    1
     4     3     2    2
     5     3     4    1
     6     2     1    1
     7     7     4    1
     8     4     5    1
     9     1     5    1
    10     1     8    1
    11     5     6    1
    12     9     8   ar
    13     9    10   ar
    14     8    15   ar
    15    10    12    1
    16    10    11   ar
    17    12    16    1
    18    15    13   ar
    19    16    14    1
    20    11    13   ar
    21    11    14    1
