@<TRIPOS>MOLECULE
out_vina_1.pdbqt
 19 21 0 0 0
SMALL
GASTEIGER

@<TRIPOS>ATOM
      1  C10        1.1510   11.5780   -8.2270 C.3     0  8330        0.0620
      2  C11        1.9870   12.6550   -8.5760 C.2     0  8330        0.0810
      3  C12        2.7520   12.2080   -9.6530 C.2     0  8330        0.1170
      4  N13        2.4440   10.9500   -9.9600 N.pl3   0  8330       -0.2810
      5  N14        1.4200   10.5280   -9.0780 N.3     0  8330       -0.2960
      6  H14        0.9650    9.6150   -9.0730 H       0  8330        0.1870
      7  C16        2.9100    9.9800  -10.9980 C.3     0  8330        0.1790
      8  C2         0.1520   11.5880   -7.1150 C.ar    0  8330       -0.0050
      9  C1        -0.2370   10.3810   -6.4760 C.ar    0  8330        0.0530
     10  C6        -1.1620   10.5010   -5.4360 C.ar    0  8330        0.1050
     11  C5        -1.7360   11.8080   -5.0490 C.ar    0  8330        0.1050
     12  O7        -1.7500    9.5550   -4.6280 O.3     0  8330       -0.3230
     13  C4        -1.3450   12.9690   -5.6860 C.ar    0  8330        0.0400
     14  O9        -2.6510   11.6100   -4.0390 O.3     0  8330       -0.3230
     15  C3        -0.4030   12.8460   -6.7140 C.ar    0  8330        0.0170
     16  C8        -2.5860   10.2310   -3.6500 C.3     0  8330        0.3520
     17  N15        3.7100   12.9420  -10.3160 N.pl3   0  8330       -0.3840
     18  H7         4.0450   13.8310   -9.9180 H       0  8330        0.1570
     19  H8         4.0920   12.6020  -11.2110 H       0  8330        0.1570
@<TRIPOS>BOND
     1    19    17    1
     2     7     4    1
     3    17    18    1
     4    17     3    1
     5     4     3    1
     6     4     5    1
     7     3     2    2
     8     5     6    1
     9     5     1    1
    10     2     1    1
    11     1     8    1
    12     8    15   ar
    13     8     9   ar
    14    15    13   ar
    15     9    10   ar
    16    13    11   ar
    17    10    11   ar
    18    10    12    1
    19    11    14    1
    20    12    16    1
    21    14    16    1
