@<TRIPOS>MOLECULE
out_vina_1.pdbqt
 19 21 0 0 0
SMALL
GASTEIGER

@<TRIPOS>ATOM
      1  C10       -0.3190   11.5050   -6.7510 C.3     0  8330        0.0620
      2  C11       -0.9900   10.8150   -5.7240 C.2     0  8330        0.0810
      3  C12       -1.7570   11.7730   -5.0600 C.2     0  8330        0.1170
      4  N13       -1.5830   12.9750   -5.6050 N.pl3   0  8330       -0.2810
      5  N14       -0.6840   12.8340   -6.6900 N.3     0  8330       -0.2960
      6  H14       -0.3660   13.5770   -7.3110 H       0  8330        0.1870
      7  C16       -2.1370   14.3380   -5.3350 C.3     0  8330        0.1790
      8  C2         0.6290   10.8890   -7.7280 C.ar    0  8330       -0.0050
      9  C1         0.5050    9.5240   -8.1000 C.ar    0  8330        0.0530
     10  C6         1.4300    9.0500   -9.0330 C.ar    0  8330        0.1050
     11  C5         2.5050    9.9110   -9.5740 C.ar    0  8330        0.1050
     12  O7         1.5990    7.8040   -9.5940 O.3     0  8330       -0.3230
     13  C4         2.6080   11.2350   -9.1970 C.ar    0  8330        0.0400
     14  O9         3.2870    9.1620  -10.4250 O.3     0  8330       -0.3230
     15  C3         1.6670   11.7100   -8.2760 C.ar    0  8330        0.0170
     16  C8         2.6710    7.8760  -10.5730 C.3     0  8330        0.3520
     17  N15       -2.5770   11.5360   -3.9800 N.pl3   0  8330       -0.3840
     18  H7        -2.7790   12.2930   -3.3110 H       0  8330        0.1570
     19  H8        -2.9890   10.6020   -3.8400 H       0  8330        0.1570
@<TRIPOS>BOND
     1    16    14    1
     2    16    12    1
     3    14    11    1
     4    12    10    1
     5    11    13   ar
     6    11    10   ar
     7    13    15   ar
     8    10     9   ar
     9    15     8   ar
    10     9     8   ar
    11     8     1    1
    12     6     5    1
    13     1     5    1
    14     1     2    1
    15     5     4    1
    16     2     3    2
    17     4     7    1
    18     4     3    1
    19     3    17    1
    20    17    19    1
    21    17    18    1
