@<TRIPOS>MOLECULE
out_vina_1.pdbqt
 19 21 0 0 0
SMALL
GASTEIGER

@<TRIPOS>ATOM
      1  C10       -0.6940   11.1820   -6.5890 C.3     0  8330        0.0620
      2  C11       -1.2630   10.7050   -5.3930 C.2     0  8330        0.0810
      3  C12       -1.8930   11.8040   -4.8080 C.2     0  8330        0.1170
      4  N13       -1.7310   12.8930   -5.5560 N.pl3   0  8330       -0.2810
      5  N14       -0.9840   12.5250   -6.7010 N.3     0  8330       -0.2960
      6  H14       -0.7110   13.1400   -7.4670 H       0  8330        0.1870
      7  C16       -2.1790   14.3160   -5.4470 C.3     0  8330        0.1790
      8  C2         0.0920   10.3580   -7.5580 C.ar    0  8330       -0.0050
      9  C1         0.8870   10.9750   -8.5600 C.ar    0  8330        0.0530
     10  C6         1.5960   10.1160   -9.4020 C.ar    0  8330        0.1050
     11  C5         1.4940    8.6450   -9.2840 C.ar    0  8330        0.1050
     12  O7         2.4360   10.3710  -10.4630 O.3     0  8330       -0.3230
     13  C4         0.7120    8.0670   -8.3040 C.ar    0  8330        0.0400
     14  O9         2.2570    8.0660  -10.2740 O.3     0  8330       -0.3230
     15  C3         0.0190    8.9320   -7.4490 C.ar    0  8330        0.0170
     16  C8         2.9740    9.1100  -10.9450 C.3     0  8330        0.3520
     17  N15       -2.5800   11.7930   -3.6150 N.pl3   0  8330       -0.3840
     18  H7        -2.0670   11.7290   -2.7250 H       0  8330        0.1570
     19  H8        -3.6090   11.8500   -3.6130 H       0  8330        0.1570
@<TRIPOS>BOND
     1    16    12    1
     2    16    14    1
     3    12    10    1
     4    14    11    1
     5    10    11   ar
     6    10     9   ar
     7    11    13   ar
     8     9     8   ar
     9    13    15   ar
    10     8    15   ar
    11     8     1    1
    12     6     5    1
    13     5     1    1
    14     5     4    1
    15     1     2    1
    16     4     7    1
    17     4     3    1
    18     2     3    2
    19     3    17    1
    20    17    19    1
    21    17    18    1
