@<TRIPOS>MOLECULE
out_vina_1.pdbqt
 19 21 0 0 0
SMALL
GASTEIGER

@<TRIPOS>ATOM
      1  C10        0.8960    9.2410   -8.3990 C.ar    0  8330        0.0620
      2  C11        1.0510    7.8430   -8.3290 C.ar    0  8330        0.0810
      3  C12        1.8850    7.5000   -9.3930 C.ar    0  8330        0.1170
      4  N13        2.2250    8.5800  -10.0930 N.ar    0  8330       -0.2810
      5  N14        1.6210    9.7030   -9.4770 N.ar    0  8330       -0.2960
      6  H14        1.7070   10.6740   -9.7750 H       0  8330        0.1870
      7  C16        3.0820    8.8240  -11.2940 C.3     0  8330        0.1790
      8  C2         0.0760   10.0650   -7.4600 C.2     0  8330       -0.0050
      9  C1        -0.4910    9.4890   -6.2930 C.2     0  8330        0.0530
     10  C6        -1.2240   10.3510   -5.4720 C.2     0  8330        0.1050
     11  C5        -1.4330   11.7730   -5.8210 C.2     0  8330        0.1050
     12  O7        -1.9030   10.1270   -4.2960 O.2     0  8330       -0.3230
     13  C4        -0.8740   12.3110   -6.9630 C.2     0  8330        0.0400
     14  O9        -2.2330   12.3530   -4.8610 O.2     0  8330       -0.3230
     15  C3        -0.1240   11.4490   -7.7720 C.3     0  8330        0.0170
     16  C8        -2.4320   11.3920   -3.8150 C.3     0  8330        0.3520
     17  N15        2.3020    6.2260   -9.7070 N.pl3   0  8330       -0.3840
     18  H7         2.6850    6.0240  -10.6420 H       0  8330        0.1570
     19  H8         2.2320    5.4730   -9.0060 H       0  8330        0.1570
@<TRIPOS>BOND
     1     7     4    1
     2    18    17    1
     3     4     5   ar
     4     4     3   ar
     5     6     5    1
     6    17     3    1
     7    17    19    1
     8     5     1   ar
     9     3     2   ar
    10     1     2   ar
    11     1     8    2
    12    15     8    1
    13    15    13    1
    14     8     9    1
    15    13    11    2
    16     9    10    2
    17    11    10    1
    18    11    14    1
    19    10    12    1
    20    14    16    1
    21    12    16    1
