@<TRIPOS>MOLECULE
out_vina_1.pdbqt
 19 21 0 0 0
SMALL
GASTEIGER

@<TRIPOS>ATOM
      1  C10        1.6290   11.7870   -9.8370 C.3     0  8330        0.0620
      2  C11        2.7920   12.5570   -9.6430 C.2     0  8330        0.0810
      3  C12        2.9950   13.2470  -10.8380 C.2     0  8330        0.1170
      4  N13        2.0530   12.9370  -11.7260 N.pl3   0  8330       -0.2810
      5  N14        1.1640   12.0210  -11.1130 N.3     0  8330       -0.2960
      6  H14        0.3330   11.6100  -11.5380 H       0  8330        0.1870
      7  C16        1.7550   13.3620  -13.1290 C.3     0  8330        0.1790
      8  C2         1.0220   10.8730   -8.8230 C.ar    0  8330       -0.0050
      9  C1         0.4530   11.3870   -7.6280 C.ar    0  8330        0.0530
     10  C6        -0.1050   10.4500   -6.7550 C.ar    0  8330        0.1050
     11  C5        -0.0690    8.9990   -7.0390 C.ar    0  8330        0.1050
     12  O7        -0.7170   10.5990   -5.5300 O.3     0  8330       -0.3230
     13  C4         0.4910    8.5200   -8.2070 C.ar    0  8330        0.0400
     14  O9        -0.6430    8.3240   -5.9840 O.3     0  8330       -0.3230
     15  C3         1.0320    9.4650   -9.0880 C.ar    0  8330        0.0170
     16  C8        -1.1880    9.2980   -5.0830 C.3     0  8330        0.3520
     17  N15        4.0260   14.1220  -11.0940 N.pl3   0  8330       -0.3840
     18  H7         4.7430   13.8820  -11.7940 H       0  8330        0.1570
     19  H8         4.0810   15.0160  -10.5860 H       0  8330        0.1570
@<TRIPOS>BOND
     1     7     4    1
     2    18    17    1
     3     4     5    1
     4     4     3    1
     5     6     5    1
     6     5     1    1
     7    17     3    1
     8    17    19    1
     9     3     2    2
    10     1     2    1
    11     1     8    1
    12    15     8   ar
    13    15    13   ar
    14     8     9   ar
    15    13    11   ar
    16     9    10   ar
    17    11    10   ar
    18    11    14    1
    19    10    12    1
    20    14    16    1
    21    12    16    1
