@<TRIPOS>MOLECULE
out_vina_1.pdbqt
 19 21 0 0 0
SMALL
GASTEIGER

@<TRIPOS>ATOM
      1  C10        0.4350    9.4500   -7.7700 C.ar    0  8330        0.0620
      2  C11        0.2690    8.0550   -7.6850 C.ar    0  8330        0.0810
      3  C12        1.0800    7.5140   -8.6830 C.ar    0  8330        0.1170
      4  N13        1.7020    8.4780   -9.3580 N.ar    0  8330       -0.2810
      5  N14        1.3210    9.7190   -8.7920 N.ar    0  8330       -0.2960
      6  H14        1.6430   10.6410   -9.0850 H       0  8330        0.1870
      7  C16        2.6770    8.5020  -10.4920 C.3     0  8330        0.1790
      8  C2        -0.2460   10.4530   -6.8970 C.2     0  8330       -0.0050
      9  C1        -0.1900   11.8390   -7.2020 C.2     0  8330        0.0530
     10  C6        -0.8760   12.6910   -6.3320 C.2     0  8330        0.1050
     11  C5        -1.5850   12.1840   -5.1380 C.2     0  8330        0.1050
     12  O7        -1.0180   14.0610   -6.3260 O.2     0  8330       -0.3230
     13  C4        -1.6240   10.8320   -4.8590 C.2     0  8330        0.0400
     14  O9        -2.1170   13.2520   -4.4490 O.2     0  8330       -0.3230
     15  C3        -0.9520    9.9800   -5.7440 C.3     0  8330        0.0170
     16  C8        -1.9040   14.4320   -5.2350 C.3     0  8330        0.3520
     17  N15        1.2240    6.1730   -8.9620 N.pl3   0  8330       -0.3840
     18  H7         2.1560    5.7360   -8.9220 H       0  8330        0.1570
     19  H8         0.4000    5.6070   -9.2090 H       0  8330        0.1570
@<TRIPOS>BOND
     1     7     4    1
     2     4     5   ar
     3     4     3   ar
     4    19    17    1
     5     6     5    1
     6    17    18    1
     7    17     3    1
     8     5     1   ar
     9     3     2   ar
    10     1     2   ar
    11     1     8    2
    12     9     8    1
    13     9    10    2
    14     8    15    1
    15    10    12    1
    16    10    11    1
    17    12    16    1
    18    15    13    1
    19    16    14    1
    20    11    13    2
    21    11    14    1
