@<TRIPOS>MOLECULE
out_vina_1.pdbqt
 19 21 0 0 0
SMALL
GASTEIGER

@<TRIPOS>ATOM
      1  C10       -0.5940   11.8270   -6.8740 C.3     0  8330        0.0620
      2  C11       -0.8750   13.1380   -6.4470 C.2     0  8330        0.0810
      3  C12       -1.6140   13.0050   -5.2710 C.2     0  8330        0.1170
      4  N13       -1.8010   11.7200   -4.9760 N.pl3   0  8330       -0.2810
      5  N14       -1.1540   10.9480   -5.9710 N.3     0  8330       -0.2960
      6  H14       -1.1090    9.9310   -6.0120 H       0  8330        0.1870
      7  C16       -2.4840   10.9890   -3.8650 C.3     0  8330        0.1790
      8  C2         0.1760   11.4670   -8.1040 C.ar    0  8330       -0.0050
      9  C1        -0.4450   11.4820   -9.3810 C.ar    0  8330        0.0530
     10  C6         0.3680   11.1480  -10.4670 C.ar    0  8330        0.1050
     11  C5         1.7850   10.7600  -10.2930 C.ar    0  8330        0.1050
     12  O7         0.0930   11.0540  -11.8130 O.3     0  8330       -0.3230
     13  C4         2.3670   10.7500   -9.0410 C.ar    0  8330        0.0400
     14  O9         2.3110   10.4370  -11.5240 O.3     0  8330       -0.3230
     15  C3         1.5540   11.1050   -7.9580 C.ar    0  8330        0.0170
     16  C8         1.3250   10.7430  -12.5190 C.3     0  8330        0.3520
     17  N15       -2.1040   14.0410   -4.5090 N.pl3   0  8330       -0.3840
     18  H7        -2.1700   13.9430   -3.4860 H       0  8330        0.1570
     19  H8        -2.4060   14.9160   -4.9630 H       0  8330        0.1570
@<TRIPOS>BOND
     1    16    12    1
     2    16    14    1
     3    12    10    1
     4    14    11    1
     5    10    11   ar
     6    10     9   ar
     7    11    13   ar
     8     9     8   ar
     9    13    15   ar
    10     8    15   ar
    11     8     1    1
    12     1     2    1
    13     1     5    1
    14     2     3    2
    15     6     5    1
    16     5     4    1
    17     3     4    1
    18     3    17    1
    19     4     7    1
    20    19    17    1
    21    17    18    1
