@<TRIPOS>MOLECULE
out_vina_1.pdbqt
 19 21 0 0 0
SMALL
GASTEIGER

@<TRIPOS>ATOM
      1  C10        0.1180   10.9060   -7.2250 C.3     0  8330        0.0620
      2  C11       -0.3050    9.9690   -6.2630 C.2     0  8330        0.0810
      3  C12       -1.1690   10.6590   -5.4130 C.2     0  8330        0.1170
      4  N13       -1.2810   11.9320   -5.7880 N.pl3   0  8330       -0.2810
      5  N14       -0.4840   12.1140   -6.9440 N.3     0  8330       -0.2960
      6  H14       -0.3750   12.9800   -7.4730 H       0  8330        0.1870
      7  C16       -2.0530   13.1090   -5.2840 C.3     0  8330        0.1790
      8  C2         1.0640   10.6230   -8.3470 C.ar    0  8330       -0.0050
      9  C1         1.3240    9.2890   -8.7590 C.ar    0  8330        0.0530
     10  C6         2.2100    9.1350   -9.8290 C.ar    0  8330        0.1050
     11  C5         2.8700   10.2930  -10.4700 C.ar    0  8330        0.1050
     12  O7         2.6820    8.0080  -10.4630 O.3     0  8330       -0.3230
     13  C4         2.6040   11.5810  -10.0510 C.ar    0  8330        0.0400
     14  O9         3.7200    9.8320  -11.4510 O.3     0  8330       -0.3230
     15  C3         1.7010   11.7320   -8.9920 C.ar    0  8330        0.0170
     16  C8         3.5260    8.4170  -11.5730 C.3     0  8330        0.3520
     17  N15       -1.8180   10.1260   -4.3230 N.pl3   0  8330       -0.3840
     18  H7        -2.7230    9.6500   -4.4440 H       0  8330        0.1570
     19  H8        -1.3980   10.2030   -3.3850 H       0  8330        0.1570
@<TRIPOS>BOND
     1    16    14    1
     2    16    12    1
     3    14    11    1
     4    11    13   ar
     5    11    10   ar
     6    12    10    1
     7    13    15   ar
     8    10     9   ar
     9    15     8   ar
    10     9     8   ar
    11     8     1    1
    12     6     5    1
    13     1     5    1
    14     1     2    1
    15     5     4    1
    16     2     3    2
    17     4     3    1
    18     4     7    1
    19     3    17    1
    20    18    17    1
    21    17    19    1
